
  EPA STORM WATER MANAGEMENT MODEL - VERSION 5.2 (Build 5.2.4)
  PYSWMM TOOLKIT API - VERSION v1.0 (2023-09-27)
  ------------------------------------------------------------

  
  ****************
  Analysis Options
  ****************
  Flow Units ............... CMS
  Process Models:
    Rainfall/Runoff ........ YES
    RDII ................... NO
    Snowmelt ............... NO
    Groundwater ............ NO
    Flow Routing ........... NO
    Water Quality .......... NO
  Infiltration Method ...... HORTON
  Starting Date ............ 01/01/2016 00:00:00
  Ending Date .............. 01/01/2016 04:00:00
  Antecedent Dry Days ...... 0.0
  Report Time Step ......... 00:01:00
  Wet Time Step ............ 00:01:00
  Dry Time Step ............ 00:01:00
  
  
  **************************        Volume         Depth
  Runoff Quantity Continuity     hectare-m            mm
  **************************     ---------       -------
  Initial LID Storage ......         0.030         0.878
  Total Precipitation ......         2.595        75.724
  Evaporation Loss .........         0.000         0.000
  Infiltration Loss ........         0.085         2.474
  Surface Runoff ...........         1.994        58.190
  Final Storage ............         0.547        15.955
  Continuity Error (%) .....        -0.022
  
  
  **************************        Volume        Volume
  Flow Routing Continuity        hectare-m      10^6 ltr
  **************************     ---------     ---------
  Dry Weather Inflow .......         0.000         0.000
  Wet Weather Inflow .......         1.992        19.920
  Groundwater Inflow .......         0.000         0.000
  RDII Inflow ..............         0.000         0.000
  External Inflow ..........         0.000         0.000
  External Outflow .........         2.022        20.216
  Flooding Loss ............         0.000         0.000
  Evaporation Loss .........         0.000         0.000
  Exfiltration Loss ........         0.000         0.000
  Initial Stored Volume ....         0.000         0.000
  Final Stored Volume ......         0.000         0.000
  Continuity Error (%) .....        -1.484
  
  
  ***************************
  Subcatchment Runoff Summary
  ***************************
  
  ------------------------------------------------------------------------------------------------------------------------------
                            Total      Total      Total      Total     Imperv       Perv      Total       Total     Peak  Runoff
                           Precip      Runon       Evap      Infil     Runoff     Runoff     Runoff      Runoff   Runoff   Coeff
  Subcatchment                 mm         mm         mm         mm         mm         mm         mm    10^6 ltr      CMS
  ------------------------------------------------------------------------------------------------------------------------------
  S6-2                      75.72       0.00       0.00       2.57       0.73      61.61      62.34        0.34     0.10   0.823
  S7-1                      75.72       0.00       0.00       2.60       0.74      56.04      56.78        0.65     0.13   0.750
  S9                        75.72       0.00       0.00       2.59       0.74      56.93      57.67        0.46     0.09   0.762
  S6-1                      75.72      50.99       0.00       2.59       1.25     105.84     107.09        0.71     0.14   0.845
  S5-1                      75.72       0.00       0.00       2.59       0.73      59.93      60.66        0.39     0.09   0.801
  S4-1                      75.72       0.00       0.00       2.60       0.74      60.95      61.68        0.80     0.21   0.815
  S3-1                      75.72       0.00       0.00       2.43       0.68      59.02      59.70        0.30     0.11   0.788
  S2-1                      75.72       0.00       0.00       2.56       0.73      61.56      62.29        0.58     0.18   0.823
  S1-1                      75.72       0.00       0.00       2.58       0.73      60.74      61.48        0.50     0.13   0.812
  S14-1                     75.72       0.00       0.00       2.60       0.74      61.29      62.03        0.76     0.20   0.819
  S11-1                     75.72       0.00       0.00       2.60       0.74      61.92      62.66        0.48     0.14   0.827
  S12-2                     75.72       0.00       0.00       2.49       3.69      59.80      63.49        0.52     0.15   0.838
  S12-3                     75.72       0.00       0.00       2.59       0.74      56.28      57.02        1.13     0.22   0.753
  S12-4                     75.72       0.00       0.00       2.60       0.74      58.17      58.91        1.55     0.33   0.778
  S13-1                     75.72       0.00       0.00       2.59       0.74      59.05      59.79        1.18     0.27   0.790
  S10-1                     75.72       0.00       0.00       2.58       0.73      60.84      61.58        0.65     0.17   0.813
  S12-1                     75.72     173.52       0.00       2.60       2.47     220.04     222.51        2.11     0.39   0.893
  S4                        75.72      68.51       0.00       2.50       5.67     123.14     128.80        1.51     0.36   0.893
  S3                        75.72      25.58       0.00       2.13       3.44      74.38      77.83        0.93     0.29   0.768
  S2                        75.72      75.21       0.00       1.46      24.42      92.16     116.58        0.90     0.27   0.772
  S14                       75.72     136.18       0.00       2.51       8.38     185.88     194.27        1.09     0.25   0.917
  S12                       75.72     248.95       0.00       2.52      12.90     280.60     293.50        4.31     0.72   0.904
  S13                       75.72     146.05       0.00       2.08      43.69     161.32     205.01        1.66     0.34   0.924
  S8                        75.72       0.00       0.00       2.40       2.79      57.36      60.14        1.03     0.32   0.794
  S7                        75.72      38.72       0.00       2.51       4.49      91.27      95.75        1.60     0.31   0.837
  S6                        75.72      38.17       0.00       2.10      22.32      77.12      99.44        1.84     0.37   0.873
  S5                        75.72      42.64       0.00       2.51       4.64      96.77     101.40        0.92     0.20   0.857
  S1                        75.72      36.87       0.00       2.49       4.39      93.34      97.73        1.32     0.33   0.868
  S11                       75.72      58.82       0.00       2.51       5.29     113.92     119.21        0.98     0.23   0.886
  S10                       75.72      52.12       0.00       2.51       5.03     107.38     112.41        1.39     0.33   0.879
  

  ***********************
  LID Performance Summary
  ***********************

  --------------------------------------------------------------------------------------------------------------------
                                         Total      Evap     Infil   Surface    Drain    Initial     Final  Continuity
                                        Inflow      Loss      Loss   Outflow   Outflow   Storage   Storage       Error
  Subcatchment      LID Control             mm        mm        mm        mm        mm        mm        mm           %
  --------------------------------------------------------------------------------------------------------------------
  S6-2              BR                   75.72      0.00      0.33      0.00      0.00     40.00    115.40       -0.00
  S7-1              BR                   75.72      0.00      0.33      0.00      0.00     40.00    115.40       -0.00
  S9                BR                   75.72      0.00      0.33      0.00      0.00     40.00    115.40       -0.00
  S6-1              BR                   75.72      0.00      0.33      0.00      0.00     40.00    115.40       -0.00
  S5-1              BR                   75.72      0.00      0.33      0.00      0.00     40.00    115.40       -0.00
  S4-1              BR                   75.72      0.00      0.33      0.00      0.00     40.00    115.40       -0.00
  S3-1              BR                   75.72      0.00      0.33      0.00      0.00     40.00    115.40       -0.00
  S2-1              BR                   75.72      0.00      0.33      0.00      0.00     40.00    115.40       -0.00
  S1-1              BR                   75.72      0.00      0.33      0.00      0.00     40.00    115.40       -0.00
  S14-1             BR                   75.72      0.00      0.33      0.00      0.00     40.00    115.40       -0.00
  S11-1             BR                   75.72      0.00      0.33      0.00      0.00     40.00    115.40       -0.00
  S12-2             BR                   75.72      0.00      0.33      0.00      0.00     40.00    115.40       -0.00
  S12-3             BR                   75.72      0.00      0.33      0.00      0.00     40.00    115.40       -0.00
  S12-4             BR                   75.72      0.00      0.33      0.00      0.00     40.00    115.40       -0.00
  S13-1             BR                   75.72      0.00      0.33      0.00      0.00     40.00    115.40       -0.00
  S10-1             BR                   75.72      0.00      0.33      0.00      0.00     40.00    115.40       -0.00
  S12-1             BR                   75.72      0.00      0.33      0.00      0.00     40.00    115.40       -0.00
  S4                BR                   75.72      0.00      0.33      0.00      0.00     40.00    115.40       -0.00
  S3                BR                   75.72      0.00      0.33      0.00      0.00     40.00    115.40       -0.00
  S2                BR                   75.72      0.00      0.33      0.00      0.00     40.00    115.40       -0.00
  S14               BR                   75.72      0.00      0.33      0.00      0.00     40.00    115.40       -0.00
  S12               BR                   75.72      0.00      0.33      0.00      0.00     40.00    115.40       -0.00
  S13               BR                   75.72      0.00      0.33      0.00      0.00     40.00    115.40       -0.00
  S8                BR                   75.72      0.00      0.33      0.00      0.00     40.00    115.40       -0.00
  S7                BR                   75.72      0.00      0.33      0.00      0.00     40.00    115.40       -0.00
  S6                BR                   75.72      0.00      0.33      0.00      0.00     40.00    115.40       -0.00
  S5                BR                   75.72      0.00      0.33      0.00      0.00     40.00    115.40       -0.00
  S1                BR                   75.72      0.00      0.33      0.00      0.00     40.00    115.40       -0.00
  S11               BR                   75.72      0.00      0.33      0.00      0.00     40.00    115.40       -0.00
  S10               BR                   75.72      0.00      0.33      0.00      0.00     40.00    115.40       -0.00

  Analysis begun on:  Thu Apr  4 01:04:44 2024
  Analysis ended on:  Thu Apr  4 01:04:44 2024
  Total elapsed time: < 1 sec