
  EPA STORM WATER MANAGEMENT MODEL - VERSION 5.2 (Build 5.2.4)
  PYSWMM TOOLKIT API - VERSION v1.0 (2023-09-27)
  ------------------------------------------------------------

  
  ****************
  Analysis Options
  ****************
  Flow Units ............... CMS
  Process Models:
    Rainfall/Runoff ........ YES
    RDII ................... NO
    Snowmelt ............... NO
    Groundwater ............ NO
    Flow Routing ........... NO
    Water Quality .......... NO
  Infiltration Method ...... HORTON
  Starting Date ............ 01/01/2016 00:00:00
  Ending Date .............. 01/01/2016 04:00:00
  Antecedent Dry Days ...... 0.0
  Report Time Step ......... 00:01:00
  Wet Time Step ............ 00:01:00
  Dry Time Step ............ 00:01:00
  
  
  **************************        Volume         Depth
  Runoff Quantity Continuity     hectare-m            mm
  **************************     ---------       -------
  Total Precipitation ......         2.595        75.724
  Evaporation Loss .........         0.000         0.000
  Infiltration Loss ........         0.164         4.787
  Surface Runoff ...........         1.963        57.285
  Final Storage ............         0.468        13.669
  Continuity Error (%) .....        -0.023
  
  
  **************************        Volume        Volume
  Flow Routing Continuity        hectare-m      10^6 ltr
  **************************     ---------     ---------
  Dry Weather Inflow .......         0.000         0.000
  Wet Weather Inflow .......         1.961        19.610
  Groundwater Inflow .......         0.000         0.000
  RDII Inflow ..............         0.000         0.000
  External Inflow ..........         0.000         0.000
  External Outflow .........         1.986        19.860
  Flooding Loss ............         0.000         0.000
  Evaporation Loss .........         0.000         0.000
  Exfiltration Loss ........         0.000         0.000
  Initial Stored Volume ....         0.000         0.000
  Final Stored Volume ......         0.000         0.000
  Continuity Error (%) .....        -1.276
  
  
  ***************************
  Subcatchment Runoff Summary
  ***************************
  
  ------------------------------------------------------------------------------------------------------------------------------
                            Total      Total      Total      Total     Imperv       Perv      Total       Total     Peak  Runoff
                           Precip      Runon       Evap      Infil     Runoff     Runoff     Runoff      Runoff   Runoff   Coeff
  Subcatchment                 mm         mm         mm         mm         mm         mm         mm    10^6 ltr      CMS
  ------------------------------------------------------------------------------------------------------------------------------
  S6-2                      75.72       0.00       0.00       4.94       0.74      60.09      60.83        0.33     0.10   0.803
  S7-1                      75.72       0.00       0.00       4.94       0.74      53.81      54.55        0.62     0.12   0.720
  S9                        75.72       0.00       0.00       4.94       0.74      54.80      55.54        0.44     0.09   0.733
  S6-1                      75.72      49.75       0.00       4.94       1.24     102.43     103.66        0.68     0.14   0.826
  S5-1                      75.72       0.00       0.00       4.94       0.74      57.89      58.63        0.38     0.09   0.774
  S4-1                      75.72       0.00       0.00       4.94       0.74      58.62      59.36        0.77     0.20   0.784
  S3-1                      75.72       0.00       0.00       4.94       0.74      61.20      61.93        0.32     0.11   0.818
  S2-1                      75.72       0.00       0.00       4.94       0.74      60.26      61.00        0.57     0.17   0.806
  S1-1                      75.72       0.00       0.00       4.94       0.74      58.78      59.52        0.48     0.12   0.786
  S14-1                     75.72       0.00       0.00       4.94       0.74      59.02      59.75        0.73     0.19   0.789
  S11-1                     75.72       0.00       0.00       4.94       0.74      59.59      60.33        0.46     0.13   0.797
  S12-2                     75.72       0.00       0.00       4.74       3.69      57.64      61.33        0.50     0.15   0.810
  S12-3                     75.72       0.00       0.00       4.94       0.74      54.12      54.86        1.09     0.21   0.724
  S12-4                     75.72       0.00       0.00       4.94       0.74      55.89      56.63        1.49     0.32   0.748
  S13-1                     75.72       0.00       0.00       4.94       0.74      56.86      57.60        1.14     0.26   0.761
  S10-1                     75.72       0.00       0.00       4.94       0.74      58.92      59.66        0.63     0.16   0.788
  S12-1                     75.72     167.15       0.00       4.94       2.41     211.48     213.89        2.03     0.37   0.881
  S4                        75.72      65.93       0.00       4.79       5.59     118.86     124.45        1.46     0.34   0.879
  S3                        75.72      26.54       0.00       4.79       4.01      83.45      87.47        1.04     0.30   0.855
  S2                        75.72      73.66       0.00       3.99      29.47     106.83     136.30        1.05     0.29   0.912
  S14                       75.72     131.19       0.00       4.79       8.20     179.05     187.25        1.05     0.24   0.905
  S12                       75.72     239.32       0.00       4.79      12.51     269.17     281.69        4.14     0.69   0.894
  S13                       75.72     140.70       0.00       3.99      42.82     155.74     198.56        1.61     0.33   0.917
  S8                        75.72       0.00       0.00       4.79       2.95      58.32      61.28        1.05     0.31   0.809
  S7                        75.72      37.20       0.00       4.79       4.44      87.78      92.22        1.54     0.29   0.817
  S6                        75.72      36.95       0.00       3.99      22.10      74.32      96.42        1.78     0.35   0.856
  S5                        75.72      41.21       0.00       4.79       4.60      93.45      98.05        0.89     0.19   0.838
  S1                        75.72      35.69       0.00       4.79       4.38      90.59      94.97        1.28     0.31   0.852
  S11                       75.72      56.63       0.00       4.79       5.22     109.81     115.03        0.94     0.22   0.869
  S10                       75.72      50.50       0.00       4.79       4.97     103.72     108.69        1.35     0.31   0.861
  

  ***********************
  LID Performance Summary
  ***********************

  --------------------------------------------------------------------------------------------------------------------
                                         Total      Evap     Infil   Surface    Drain    Initial     Final  Continuity
                                        Inflow      Loss      Loss   Outflow   Outflow   Storage   Storage       Error
  Subcatchment      LID Control             mm        mm        mm        mm        mm        mm        mm           %
  --------------------------------------------------------------------------------------------------------------------

  Analysis begun on:  Fri Apr  5 16:52:50 2024
  Analysis ended on:  Fri Apr  5 16:52:50 2024
  Total elapsed time: < 1 sec