
  EPA STORM WATER MANAGEMENT MODEL - VERSION 5.2 (Build 5.2.4)
  PYSWMM TOOLKIT API - VERSION v1.0 (2023-09-27)
  ------------------------------------------------------------

  
  ****************
  Analysis Options
  ****************
  Flow Units ............... CMS
  Process Models:
    Rainfall/Runoff ........ YES
    RDII ................... NO
    Snowmelt ............... NO
    Groundwater ............ NO
    Flow Routing ........... NO
    Water Quality .......... NO
  Infiltration Method ...... HORTON
  Starting Date ............ 01/01/2016 00:00:00
  Ending Date .............. 01/01/2016 04:00:00
  Antecedent Dry Days ...... 0.0
  Report Time Step ......... 00:01:00
  Wet Time Step ............ 00:01:00
  Dry Time Step ............ 00:01:00
  
  
  **************************        Volume         Depth
  Runoff Quantity Continuity     hectare-m            mm
  **************************     ---------       -------
  Total Precipitation ......         2.595        75.724
  Evaporation Loss .........         0.000         0.000
  Infiltration Loss ........         0.086         2.519
  Surface Runoff ...........         2.040        59.525
  Final Storage ............         0.469        13.698
  Continuity Error (%) .....        -0.023
  
  
  **************************        Volume        Volume
  Flow Routing Continuity        hectare-m      10^6 ltr
  **************************     ---------     ---------
  Dry Weather Inflow .......         0.000         0.000
  Wet Weather Inflow .......         2.038        20.377
  Groundwater Inflow .......         0.000         0.000
  RDII Inflow ..............         0.000         0.000
  External Inflow ..........         0.000         0.000
  External Outflow .........         2.067        20.671
  Flooding Loss ............         0.000         0.000
  Evaporation Loss .........         0.000         0.000
  Exfiltration Loss ........         0.000         0.000
  Initial Stored Volume ....         0.000         0.000
  Final Stored Volume ......         0.000         0.000
  Continuity Error (%) .....        -1.442
  
  
  ***************************
  Subcatchment Runoff Summary
  ***************************
  
  ------------------------------------------------------------------------------------------------------------------------------
                            Total      Total      Total      Total     Imperv       Perv      Total       Total     Peak  Runoff
                           Precip      Runon       Evap      Infil     Runoff     Runoff     Runoff      Runoff   Runoff   Coeff
  Subcatchment                 mm         mm         mm         mm         mm         mm         mm    10^6 ltr      CMS
  ------------------------------------------------------------------------------------------------------------------------------
  S6-2                      75.72       0.00       0.00       2.60       0.74      62.43      63.16        0.34     0.10   0.834
  S7-1                      75.72       0.00       0.00       2.60       0.74      56.10      56.83        0.65     0.13   0.751
  S9                        75.72       0.00       0.00       2.60       0.74      57.10      57.83        0.46     0.09   0.764
  S6-1                      75.72      51.67       0.00       2.60       1.25     106.63     107.89        0.71     0.15   0.847
  S5-1                      75.72       0.00       0.00       2.60       0.74      60.22      60.95        0.39     0.10   0.805
  S4-1                      75.72       0.00       0.00       2.60       0.74      60.95      61.69        0.80     0.21   0.815
  S3-1                      75.72       0.00       0.00       2.60       0.74      63.53      64.27        0.33     0.12   0.849
  S2-1                      75.72       0.00       0.00       2.60       0.74      62.60      63.34        0.59     0.18   0.836
  S1-1                      75.72       0.00       0.00       2.60       0.74      61.11      61.85        0.50     0.13   0.817
  S14-1                     75.72       0.00       0.00       2.60       0.74      61.35      62.09        0.76     0.20   0.820
  S11-1                     75.72       0.00       0.00       2.60       0.74      61.93      62.67        0.48     0.14   0.828
  S12-2                     75.72       0.00       0.00       2.49       3.69      59.88      63.58        0.52     0.16   0.840
  S12-3                     75.72       0.00       0.00       2.60       0.74      56.40      57.14        1.13     0.22   0.755
  S12-4                     75.72       0.00       0.00       2.60       0.74      58.20      58.94        1.55     0.33   0.778
  S13-1                     75.72       0.00       0.00       2.60       0.74      59.17      59.91        1.19     0.27   0.791
  S10-1                     75.72       0.00       0.00       2.60       0.74      61.25      61.99        0.65     0.17   0.819
  S12-1                     75.72     173.85       0.00       2.60       2.48     220.35     222.83        2.12     0.39   0.893
  S4                        75.72      68.52       0.00       2.52       5.69     123.60     129.29        1.51     0.36   0.896
  S3                        75.72      27.54       0.00       2.52       4.05      86.68      90.74        1.08     0.31   0.879
  S2                        75.72      76.48       0.00       2.10      30.04     110.98     141.01        1.09     0.30   0.926
  S14                       75.72     136.31       0.00       2.52       8.40     186.22     194.62        1.09     0.25   0.918
  S12                       75.72     249.22       0.00       2.52      12.91     280.83     293.75        4.32     0.72   0.904
  S13                       75.72     146.36       0.00       2.10      43.95     162.13     206.08        1.67     0.34   0.928
  S8                        75.72       0.00       0.00       2.52       2.95      60.59      63.54        1.09     0.33   0.839
  S7                        75.72      38.76       0.00       2.52       4.50      91.49      95.99        1.60     0.31   0.838
  S6                        75.72      38.46       0.00       2.10      22.40      77.39      99.79        1.85     0.37   0.874
  S5                        75.72      42.85       0.00       2.52       4.66      97.26     101.92        0.93     0.20   0.860
  S1                        75.72      37.09       0.00       2.52       4.44      94.19      98.63        1.33     0.33   0.874
  S11                       75.72      58.83       0.00       2.52       5.30     114.17     119.48        0.98     0.23   0.888
  S10                       75.72      52.47       0.00       2.52       5.05     107.87     112.92        1.40     0.33   0.881
  

  ***********************
  LID Performance Summary
  ***********************

  --------------------------------------------------------------------------------------------------------------------
                                         Total      Evap     Infil   Surface    Drain    Initial     Final  Continuity
                                        Inflow      Loss      Loss   Outflow   Outflow   Storage   Storage       Error
  Subcatchment      LID Control             mm        mm        mm        mm        mm        mm        mm           %
  --------------------------------------------------------------------------------------------------------------------

  Analysis begun on:  Wed Apr  3 17:26:13 2024
  Analysis ended on:  Wed Apr  3 17:26:15 2024
  Total elapsed time: 00:00:02